&share
 wrf_core = 'ARW',
 max_dom = 1,
 start_date = '__FECHA_INI__', '2016-04-07_00:00:00', '2016-04-07_00:00:00',
 end_date = '__FECHA_FIN__', '2016-04-07_12:00:00', '2016-04-07_12:00:00',
 interval_seconds = __INTERVALO__,
 io_form_geogrid = __IOTYPE__,
/
&geogrid
parent_id         =   1,   1,
parent_grid_ratio =   1,   3,
i_parent_start    =   1,  55,
j_parent_start    =   1,  154,
e_we              =  __E_WE__, 250,
e_sn              =  __E_SN__,  271,
geog_data_res     = '30s','2m',
dx = __DX__,
dy = __DY__,
map_proj = '__MAP_PROJ__',
ref_lat   = __REF_LAT__,
ref_lon   = __REF_LON__,
truelat1  = __TRUELAT1__,
truelat2  = __TRUELAT2__,
stand_lon = __STAND_LON__,
 geog_data_path = '__GEOG__'
/
&ungrib
 out_format = 'WPS',
 prefix = 'FILE',
/

&metgrid
 fg_name = 'FILE'
 io_form_metgrid = __IOTYPE__,
 opt_output_from_metgrid_path = __OUTPUTPATH__,
/
