 &time_control
 start_year               = __START_YEAR__,
 start_month              = __START_MONTH__,
 start_day                = __START_DAY__,
 start_hour               = __START_HOUR__,
 start_minute             = __START_MINUTE__,
 start_second             = __START_SECOND__,
 end_year                 = __END_YEAR__,
 end_month                = __END_MONTH__,  
 end_day                  = __END_DAY__,  
 end_hour                 = __END_HOUR__,  
 end_minute               = __END_MINUTE__,  
 end_second               = __END_SECOND__,  
 interval_seconds                    = __INTERVALO_WPS__
 input_from_file                     = .true.,
 history_interval                    = __INTERVALO_WRF__,  
 frames_per_outfile                  = 1, 1000, 1000,
 restart                             = .false.,
 restart_interval                    = 5000,
 io_form_auxinput1                   = __IOTYPE__,
 debug_level                         = 1
 /
 &domains
 numtiles                            = __NUMTILE__,
 !nproc_x 
 !nproc_y  


 use_adaptive_time_step              = .true.
 step_to_output_time                 = .true.
 target_cfl                          = 1.2
 max_step_increase_pct               = 5
 starting_time_step                  = 20
 max_time_step                       = 50
 min_time_step                       = 10
 smooth_cg_topo                      = .false.
 time_step                           = 24,
 time_step_fract_num                 = 0,
 time_step_fract_den                 = 1,
 max_dom                             = 1,
 e_we                                = __E_WE__,
 e_sn                                = __E_SN__,
 e_vert                              = 45,  
 p_top_requested                     = 1000,
 num_metgrid_levels                  = __METLEV__,
 num_metgrid_soil_levels             = 4,
 dx                                  = __DX__,
 dy                                  = __DY__,
 grid_id                             = 1,
 parent_id                           = 0,
 i_parent_start                      = 1,
 j_parent_start                      = 1,
 parent_grid_ratio                   = 1,
 parent_time_step_ratio              = 1,
 feedback                            = 0,
 smooth_option                       = 0
 /

 &physics
 mp_physics                          = 2,
 bl_pbl_physics                      = 11,
 sf_sfclay_physics                   = 1,
 ra_lw_physics                       = 4,
 ra_sw_physics                       = 4,
 radt                                = 10,
 sf_surface_physics                  = 4, 
 bldt                                = 0, 
 cu_physics                          = 0, 
 cudt                                = 5, 
 isfflx                              = 1,
 ifsnow                              = 1,
 icloud                              = 1,
 surface_input_source                = 1,
 num_soil_layers                     = 4,
 sf_urban_physics                    = 0, 
 /

 &fdda
 /

 &dynamics
 w_damping                           = 0,
 diff_opt                            = 1,
 km_opt                              = 4,
 diff_6th_opt                        = 0,
 diff_6th_slopeopt                   = 1, 
 diff_6th_thresh                     = 0.10,
 diff_6th_factor                     = 0.12, 
 base_temp                           = 290.,
 damp_opt                            = 3,
 zdamp                               = 5000.,
 dampcoef                            = 0.2,  
 khdif                               = 0,    
 kvdif                               = 0,    
 non_hydrostatic                     = .true.,
 moist_adv_opt                       = 1,     
 scalar_adv_opt                      = 1,
 h_mom_adv_order                     = 5,  
 v_mom_adv_order                     = 3,
 h_sca_adv_order                     = 5,  
 v_sca_adv_order                     = 3,     
 use_theta_m                         = 0,
 /

 &bdy_control
 spec_bdy_width                      = 5,
 spec_zone                           = 1,
 relax_zone                          = 4,
 specified                           = .true., .false.,.false.,
 nested                              = .false., .true., .true.,
 /

 &stoch
 skebs                              = 0,	
 tot_backscat_psi                   = 1.0E-05,
 tot_backscat_t                     = 1.0E-06,
 ztau_psi                           = 10800.0,
 ztau_t                             = 10800.0,
 rexponent_psi                      = -1.83,
 rexponent_t                        = -1.83,
 zsigma2_eps                        = 0.0833,
 zsigma2_eta                        = 0.0833,
 kminforc                           = 1,
 lminforc                           = 1,
 kminforct                          = 1,
 lminforct                          = 1,
 kmaxforc                           = 1000000,
 lmaxforc                           = 1000000,
 kmaxforct                          = 1000000,
 lmaxforct                          = 1000000,
 skebs_vertstruc                    = 0,
 sppt                               = 0,	
 gridpt_stddev_sppt                 = 0.5,
 lengthscale_sppt                   = 150000,
 timescale_sppt                     = 10800,
 stddev_cutoff_sppt                 = 2,
 iseed_sppt                         = 1,
 nens                               = 47, 
 /

 &grib2
 /

 &namelist_quilt
 nio_tasks_per_group = __NIOT__,
 nio_groups = __NIOG__,
 /
