 &time_control
 start_year                          = SYYYY, SYYYY, SYYYY,
 start_month                         = SMM,   SMM,  SMM,
 start_day                           = SDD,   SDD,  SDD,
 start_hour                          = SHH,   SHH,  SHH,
 start_minute                        = SMN,   SMN,  SMN,
 start_second                        = SSS,   SSS,  SSS,
 end_year                            = EYYYY, EYYYY, EYYYY,
 end_month                           = EMM,   EMM,   EMM,
 end_day                             = EDD,   EDD,   EDD,
 end_hour                            = EHH,   EHH,   EHH,
 end_minute                          = EMN,   EMN,   EMN,
 end_second                          = ESS,   ESS,   ESS,
 interval_seconds                    = BDYFREQ
 input_from_file                     = .true.,.true.,.true.,
 history_interval_s                  = OUTPUTFREQ,  OUTPUTFREQ, OUTPUTFREQ,
 frames_per_outfile                  = 1, 1000, 1000,
 restart                             = .false.,
 restart_interval                    = 50000,
 io_form_history                     = 2
 io_form_restart                     = 2
 io_form_input                       = 2
 io_form_boundary                    = 2
 debug_level                         = 0
 io_form_auxinput5                   = 2,
 auxinput6_inname                    = 'wrfbiochemi_d01',
 io_form_auxinput6                   = 2,
 auxinput7_inname                    = 'wrffirechemi_d<domain>_<date>',
 io_form_auxinput7                   = 2,
 frames_per_auxinput7                = 1,
 auxinput8_inname                    = 'wrfchemi_gocart_bg_d<domain>',
 io_form_auxinput8                   = 2,
 auxinput12_inname                   = 'wrf_chem_input',
 io_form_auxinput12                   = 0,
 auxinput13_inname                   = 'wrfchemv_d<domain>',
 io_form_auxinput13                  = 0,
 auxinput5_interval_m                = 144000, 86400, 60,
 auxinput7_interval_m                = 60, 86400, 60,
 auxinput8_interval_m                = 86400, 86400, 60,
 auxinput13_interval_m               = 86400, 86400, 60,
 /

 &domains
 use_adaptive_time_step              = .false.
 step_to_output_time                 = .true.
 target_cfl                 = 1.2
 max_step_increase_pct      = 50
 starting_time_step         = 50
 max_time_step              = 240
 min_time_step              = 20
 smooth_cg_topo             = .false.
 time_step                           = 180,
 time_step_fract_num                 = 0,
 time_step_fract_den                 = 1,
 max_dom                             = 1,
 e_we                                = 114,    41,    94,
 e_sn                                = 148,    41,    91,
 e_vert                              = 38,    31,    28,
 p_top_requested                     = 5000,
 num_metgrid_levels                  = 38,
 num_metgrid_soil_levels             = 4,
 dx                                  = 60000, 4000,  3333.33,
 dy                                  = 60000, 4000,  3333.33,
 grid_id                             = 1,     2,     3,
 parent_id                           = 0,     1,     2,
 i_parent_start                      = 1,     6,    30,
 j_parent_start                      = 1,     65,    30,
 parent_grid_ratio                   = 1,     5,     3,
 parent_time_step_ratio              = 1,     5,     3,
 feedback                            = 1,
 smooth_option                       = 0
 zap_close_levels                    = 50
 interp_type                         = 1
 t_extrap_type                       = 2
 force_sfc_in_vinterp                = 1
 use_levels_below_ground             = .true.
 use_surface                         = .true.
 lagrange_order                      = 2
 /

 &physics
 mp_physics                          = 4,     2,     2,
 progn                               = 0,
 ra_lw_physics                       = 4,     1,     1,
 ra_sw_physics                       = 4,     1,     1,
 radt                                = 30,    30,    30,
 sf_sfclay_physics                   = 2,     1,     1,
 sf_surface_physics                  = 2,     2,     1,
 bl_pbl_physics                      = 2,     1,     1,
 bldt                                = 0,     0,     0,
 cu_physics                          = 3,     5,     0,
 cudt                                = 0,     0,     0,
 ishallow                            = 0,
 isfflx                              = 1,
 ifsnow                              = 1,
 icloud                              = 1,
 surface_input_source                = 1,
 num_soil_layers                     = 4,
 sf_urban_physics                    = 0,     0,     0,
 mp_zero_out                         = 2,
 mp_zero_out_thresh                  = 1.e-12
 maxiens                             = 1,
 maxens                              = 3,
 maxens2                             = 3,
 maxens3                             = 16,
 ensdim                              = 144,
 cu_rad_feedback                     = .true.,
 cu_diag                             = 1,
 /


 &fdda
 /

 &dynamics
 rk_ord                              = 3,
 w_damping                           = 0,
 diff_opt                            = 1,
 km_opt                              = 4,
 diff_6th_opt                        = 0,
 diff_6th_factor                     = 0.12,
 base_temp                           = 290.
 damp_opt                            = 1,
 zdamp                               = 5000.,  5000.,  5000.,
 dampcoef                            = 0.1,   0.01,   0.01
 khdif                               = 0,      0,      0,
 kvdif                               = 0,      0,      0,
 non_hydrostatic                     = .true., .true., .true.,
 moist_adv_opt                       = 2,      0,      0,
 scalar_adv_opt                      = 2,      0,      0,
 chem_adv_opt                        = 2,      0,      0,
 tracer_opt                          = 0,
 tracer_adv_opt                      = 1,
 tke_adv_opt                         = 2,      0,      0,
 time_step_sound                     = 4,      4,      4,
 h_mom_adv_order                     = 5,      5,      5,
 v_mom_adv_order                     = 3,      3,      3,
 h_sca_adv_order                     = 5,      5,      5,
 v_sca_adv_order                     = 3,      3,      3,
 /

 &bdy_control
 spec_bdy_width                      = 5,
 spec_zone                           = 1,
 relax_zone                          = 4,
 specified                           = .true., .false.,.false.,
 nested                              = .false.,.false.,.false.,
 /


 &grib2
 /

 &namelist_quilt
 nio_tasks_per_group = 0,
 nio_groups = 1,
 /

 &chem
 kemit                               = 1,
 chem_opt                            = 17,
 bioemdt                             = 0,
 photdt                              = 0,
 chemdt                              = 0,
 io_style_emissions                  = 1,
 emiss_opt                           = 17,          0,
 emiss_inpt_opt                      = 16,
 emiss_opt_vol                       = 0,          0,
 emiss_ash_hgt                       = 20000.,
 chem_in_opt                         = 0,          0,
 phot_opt                            = 0,          0,
 gas_drydep_opt                      = 1,          1,
 aer_drydep_opt                      = 0,          1,
 bio_emiss_opt                       = 0,          0,
 dust_opt                            = 0,
 dmsemis_opt                         = 0,
 seas_opt                            = 0,
 depo_fact                           = 0.25
 gas_bc_opt                          = 1,          0,
 gas_ic_opt                          = 1,          0,
 aer_bc_opt                          = 1,          0,
 aer_ic_opt                          = 1,          0,
 gaschem_onoff                       = 0,          0,
 aerchem_onoff                       = 0,          0,
 wetscav_onoff                       = 0,          0,
 cldchem_onoff                       = 0,          0,
 vertmix_onoff                       = 1,          0,
 chem_conv_tr                        = 1,          0,
 conv_tr_wetscav                     = 0,          0,
 conv_tr_aqchem                      = 0,          0,
 biomass_burn_opt                    = 5,          0,
 plumerisefire_frq                   = 60,         0,
 scale_fire_emiss                    = .false.,
 have_bcs_chem                       = .true., .false., .false.,
 aer_ra_feedback                     = 0,
 aer_op_opt                          = 0,
 opt_pars_out                        = 0,
 diagnostic_chem                     = 0,
 vprm_opt                            = "VPRM_table_US",
 wpeat                               = 0.05,
 wflood                              = 0.19,
 term_opt                            = "CH4_termite_NW",
 /



